3
Lattice="40.0 0.0 0.0 0.0 40.0 0.0 0.0 0.0 40.0" Properties=species:S:1:pos:R:3:forces:R:3 energy=-2077.4323495 stress="0.0 0.0 0.0 0.0 0.0 0.0 0.0 0.0 0.0" pbc="T T T"
O      12.10002182      28.07266590      22.57586627      -6.36330481      -3.61824575      -6.78683351 
H      12.53680000      28.75610000      22.89930000       3.62010006       5.76980290       2.64587922 
H      11.50336316      28.55787826      21.66949932       2.74320475      -2.15155715       4.14095429 
3
Lattice="40.0 0.0 0.0 0.0 40.0 0.0 0.0 0.0 40.0" Properties=species:S:1:pos:R:3:forces:R:3 energy=-2077.92150095 stress="0.0 0.0 0.0 0.0 0.0 0.0 0.0 0.0 0.0" pbc="T T T"
O      12.07516819      28.07328973      22.54453085      -4.87133456      -2.03963622      -5.43513467 
H      12.53680000      28.75610000      22.89930000       2.55557885       3.89855875       1.92523576 
H      11.51879394      28.54416381      21.69331945       2.31575571      -1.85892252       3.50989892 
3
Lattice="40.0 0.0 0.0 0.0 40.0 0.0 0.0 0.0 40.0" Properties=species:S:1:pos:R:3:forces:R:3 energy=-2078.28017135 stress="0.0 0.0 0.0 0.0 0.0 0.0 0.0 0.0 0.0" pbc="T T T"
O      12.05206071      28.08143289      22.51291229      -3.31928004      -1.45863531      -3.68090357 
H      12.53680000      28.75610000      22.89930000       1.78360476       2.64040009       1.37001709 
H      11.53528209      28.52948691      21.71878326       1.53567528      -1.18176477       2.31088648 
3
Lattice="40.0 0.0 0.0 0.0 40.0 0.0 0.0 0.0 40.0" Properties=species:S:1:pos:R:3:forces:R:3 energy=-2078.45934667 stress="0.0 0.0 0.0 0.0 0.0 0.0 0.0 0.0 0.0" pbc="T T T"
O      12.02871965      28.08876483      22.48126679      -1.23247095      -1.46361710      -1.06467044 
H      12.53680000      28.75610000      22.89930000       0.99504470       1.48522619       0.76019122 
H      11.55122281      28.51625483      21.74308842       0.23742625      -0.02160909       0.30447922 
3
Lattice="40.0 0.0 0.0 0.0 40.0 0.0 0.0 0.0 40.0" Properties=species:S:1:pos:R:3:forces:R:3 energy=-2078.48261345 stress="0.0 0.0 0.0 0.0 0.0 0.0 0.0 0.0 0.0" pbc="T T T"
O      12.01823211      28.08181111      22.47040715      -0.34025092      -1.08197649      -0.07197065 
H      12.53680000      28.75610000      22.89930000       0.50252666       0.78412313       0.37275806 
H      11.55435857      28.51571321      21.74719406      -0.16227574       0.29785336      -0.30078740 
3
Lattice="40.0 0.0 0.0 0.0 40.0 0.0 0.0 0.0 40.0" Properties=species:S:1:pos:R:3:forces:R:3 energy=-2078.49484023 stress="0.0 0.0 0.0 0.0 0.0 0.0 0.0 0.0 0.0" pbc="T T T"
O      12.01221201      28.06923407      22.46698483      -0.05299665      -0.37693439       0.05695307 
H      12.53680000      28.75610000      22.89930000       0.13388880       0.23253854       0.09159493 
H      11.55311249      28.51988103      21.74426915      -0.08089216       0.14439585      -0.14854800 
3
Lattice="40.0 0.0 0.0 0.0 40.0 0.0 0.0 0.0 40.0" Properties=species:S:1:pos:R:3:forces:R:3 energy=-2078.49662648 stress="0.0 0.0 0.0 0.0 0.0 0.0 0.0 0.0 0.0" pbc="T T T"
O      12.01008099      28.06277608      22.46642871       0.00256534      -0.01970080       0.00958032 
H      12.53680000      28.75610000      22.89930000      -0.01002691       0.00574572      -0.01442471 
H      11.55226331      28.52250825      21.74234670       0.00746157       0.01395508       0.00484439 
3
Lattice="40.0 0.0 0.0 0.0 40.0 0.0 0.0 0.0 40.0" Properties=species:S:1:pos:R:3:forces:R:3 energy=-2078.49664016 stress="0.0 0.0 0.0 0.0 0.0 0.0 0.0 0.0 0.0" pbc="T T T"
O      12.01005724      28.06242752      22.46651184       0.00387565      -0.00364917       0.00596537 
H      12.53680000      28.75610000      22.89930000      -0.01424779      -0.00333408      -0.01673870 
H      11.55238687      28.52274344      21.74242549       0.01037214       0.00698325       0.01077333 
3
Lattice="40.0 0.0 0.0 0.0 40.0 0.0 0.0 0.0 40.0" Properties=species:S:1:pos:R:3:forces:R:3 energy=-2078.49665338 stress="0.0 0.0 0.0 0.0 0.0 0.0 0.0 0.0 0.0" pbc="T T T"
O      12.01014329      28.06209686      22.46672492       0.00391734       0.00751518       0.00236027 
H      12.53680000      28.75610000      22.89930000      -0.01421578      -0.00853547      -0.01499429 
H      11.55272760      28.52308226      21.74274377       0.01029844       0.00102030       0.01263402 
3
Lattice="40.0 0.0 0.0 0.0 40.0 0.0 0.0 0.0 40.0" Properties=species:S:1:pos:R:3:forces:R:3 energy=-2078.49666559 stress="0.0 0.0 0.0 0.0 0.0 0.0 0.0 0.0 0.0" pbc="T T T"
O      12.01037122      28.06180500      22.46710032       0.00238157       0.01161630      -0.00090943 
H      12.53680000      28.75610000      22.89930000      -0.00854813      -0.00837826      -0.00794395 
H      11.55334371      28.52354291      21.74336920       0.00616655      -0.00323805       0.00885339 
3
Lattice="40.0 0.0 0.0 0.0 40.0 0.0 0.0 0.0 40.0" Properties=species:S:1:pos:R:3:forces:R:3 energy=-2078.4966679 stress="0.0 0.0 0.0 0.0 0.0 0.0 0.0 0.0 0.0" pbc="T T T"
O      12.01053927      28.06179749      22.46730914       0.00070535       0.00553548      -0.00102022 
H      12.53680000      28.75610000      22.89930000      -0.00239473      -0.00330692      -0.00189494 
H      11.55369552      28.52372574      21.74375327       0.00168938      -0.00222856       0.00291517 
